Circuit: * D:\Andrey\Model\LTSpice\Project\REZCONV\ResonantConv.asc

C2: Increased Cpar to 1e-012
Direct Newton iteration failed to find .op point.  (Use ".option noopiter" to skip.)
Starting Gmin stepping
Gmin = 10
Gmin = 1.07374
Gmin = 0.115292
Gmin = 0.0123794
Gmin = 0.00132923
Gmin = 0.000142725
Gmin = 1.5325e-005
Gmin = 1.6455e-006
Gmin = 1.76685e-007
Gmin = 1.89714e-008
Gmin = 2.03704e-009
Gmin = 2.18725e-010
Gmin = 2.34854e-011
vernier = 0.5
vernier = 0.25
vernier = 0.125
Gmin = 1.74044e-011
vernier = 0.0625
vernier = 0.03125
Gmin = 1.51484e-011
vernier = 0.015625
vernier = 0.0078125
vernier = 0.00390625
Gmin = 1.48997e-011
vernier = 0.00195313
vernier = 0.000976563
vernier = 0.000488281
Gmin = 1.48888e-011
Gmin = 0
Gmin stepping succeeded in finding the operating point.

Heightened Def Con from 2.42e-005 to 2.4203e-005
Heightened Def Con from 5.42008e-005 to 5.42038e-005
Heightened Def Con from 9.42001e-005 to 9.42031e-005
Heightened Def Con from 0.000109553 to 0.000109553
Heightened Def Con from 0.000144554 to 0.000144554
Heightened Def Con from 0.0001792 to 0.000179203
Heightened Def Con from 0.0002342 to 0.000234203
Heightened Def Con from 0.0002392 to 0.000239203
Heightened Def Con from 0.0002442 to 0.000244203
Heightened Def Con from 0.0002492 to 0.000249203
Heightened Def Con from 0.0002542 to 0.000254203
Heightened Def Con from 0.000256502 to 0.000256505
Heightened Def Con from 0.0002842 to 0.000284203
Heightened Def Con from 0.0003242 to 0.000324203
Heightened Def Con from 0.0003292 to 0.000329203
Heightened Def Con from 0.0003492 to 0.000349203
Heightened Def Con from 0.0004692 to 0.000469203
Heightened Def Con from 0.0004892 to 0.000489203
Heightened Def Con from 0.0005092 to 0.000509203
Heightened Def Con from 0.0005142 to 0.000514203
Heightened Def Con from 0.0005392 to 0.000539203
Heightened Def Con from 0.000569552 to 0.000569553
Heightened Def Con from 0.0006442 to 0.000644203
Heightened Def Con from 0.0006642 to 0.000664203
Heightened Def Con from 0.0006692 to 0.000669203
Heightened Def Con from 0.000734554 to 0.000734554
Heightened Def Con from 0.0007792 to 0.000779203
Heightened Def Con from 0.0007942 to 0.000794203
Heightened Def Con from 0.0008092 to 0.000809203
Heightened Def Con from 0.0008192 to 0.000819203
Heightened Def Con from 0.0008442 to 0.000844203

Date: Wed May 21 15:47:10 2025
Total elapsed time: 5.385 seconds.

tnom = 27
temp = 27
method = modified trap
totiter = 409058
traniter = 407424
tranpoints = 131211
accept = 101333
rejected = 29909
matrix size = 88
fillins = 71
solver = Normal
Thread vector: 7.9/6.6[2] 1.5/1.9[1] 1.6/2.4[1] 0.4/8.0[1]  2592/500
Matrix Compiler1: 8.46 KB object code size  1.4/0.6/[0.3]
Matrix Compiler2: 8.12 KB object code size  1.0/1.5/[0.6]

